*Heading
** Job name: CylinderFlattened Model name: CylinderNew01
** Generated by: Abaqus/CAE 6.14-1
*Preprint, echo=NO, model=NO, history=NO, contact=NO
** ----------------------------------------------------------------
** 
** PART INSTANCE: PART-1-1
** 
*Node
      1,   14.9665031,          15.,  -1.00188947
      2,   14.8661623,          15.,  -1.99930429
      3,   14.6994257,          15.,  -2.98778987
      4,   14.4670372,          15.,  -3.96293092
      5,   14.1700363,          15.,  -4.92037296
      6,   13.8097486,          15.,  -5.85583925
      7,   13.3877821,          15.,  -6.76515198
      8,    12.906024,          15.,  -7.64424944
      9,   12.3666239,          15.,  -8.48920631
     10,   11.7719908,          15.,  -9.29624844
     11,   11.1247816,          15.,  -10.0617714
     12,    10.427886,          15.,  -10.7823553
     13,   9.68441772,          15.,  -11.4547825
     14,    8.8976965,          15.,  -12.0760508
     15,   8.07123566,          15.,   -12.643384
     16,   7.20872641,          15.,  -13.1542492
     17,   6.31402159,          15.,  -13.6063633
     18,   5.39111662,          15.,  -13.9977093
     19,   4.44413376,          15.,  -14.3265371
     20,   3.47730231,          15.,  -14.5913801
** ... 2894 like lines cut
*Element, type=S4R
   1,   94,    1,   95,  188
   2,    1,    2,   96,   95
   3,    2,    3,   97,   96
   4,    3,    4,   98,   97
   5,    4,    5,   99,   98
   6,    5,    6,  100,   99
   7,    6,    7,  101,  100
   8,    7,    8,  102,  101
   9,    8,    9,  103,  102
  10,    9,   10,  104,  103
  11,   10,   11,  105,  104
  12,   11,   12,  106,  105
  13,   12,   13,  107,  106
  14,   13,   14,  108,  107
  15,   14,   15,  109,  108
  16,   15,   16,  110,  109
  17,   16,   17,  111,  110
  18,   17,   18,  112,  111
  19,   18,   19,  113,  112
  20,   19,   20,  114,  113
** ... 2800 like lines cut
*Elset, elset=PART-1-1_SET-1, generate
    1,  2820,     1
** Section: Section-1-SET-1
*Shell Section, elset=PART-1-1_SET-1, material=MATERIAL-1
2., 5
*System
*Nset, nset=SET-1, generate
    1,  2914,     1
*Nset, nset=SET-2
 2899,
*Nset, nset=SET-3, generate
 2821,  2914,     1
*Elset, elset=_SURF-1_E1
 5,
*Surface, type=ELEMENT, name=SURF-1
_SURF-1_E1, E1
** 
** MATERIALS
** 
*Material, name=MATERIAL-1
*Elastic
210000., 0.3
** ----------------------------------------------------------------
** 
** STEP: Step-1
** 
*Step, name=Step-1, nlgeom=NO
*Static
1., 1., 1e-05, 1.
** 
** BOUNDARY CONDITIONS
** 
** Name: Disp-BC-1 Type: Symmetry/Antisymmetry/Encastre
*Boundary
SET-2, ENCASTRE
** Name: Disp-BC-2 Type: Symmetry/Antisymmetry/Encastre
*Boundary
SET-3, ENCASTRE
** 
** LOADS
** 
** Name: ShellEdgeLoad-1   Type: Shell edge load
*Dsload
SURF-1, EDNOR, 1.
** 
** OUTPUT REQUESTS
** 
*Restart, write, frequency=0
** 
** FIELD OUTPUT: F-Output-1
** 
*Output, field, variable=PRESELECT
** 
** HISTORY OUTPUT: H-Output-1
** 
*Output, history, variable=PRESELECT
*End Step
