*Heading
** Job name: FlatPlateNew2 Model name: FlatPlateFlattenedUpdated
** Generated by: Abaqus/CAE 6.14-1
*Preprint, echo=NO, model=NO, history=NO, contact=NO
** ----------------------------------------------------------------
** 
** PART INSTANCE: PART-1-1
** 
*Node
      1,   14.9246674,    1.5014354,           0.
      2,   14.6994257,   2.98778987,           0.
      3,   14.3265371,   4.44413376,           0.
      4,   13.8097486,   5.85583925,           0.
      5,   13.1542492,   7.20872641,           0.
      6,   12.3666239,   8.48920631,           0.
      7,   11.4547825,   9.68441772,           0.
      8,    10.427886,   10.7823553,           0.
      9,   9.29624844,   11.7719908,           0.
     10,   8.07123566,    12.643384,           0.
     11,   6.76515198,   13.3877821,           0.
     12,   5.39111662,   13.9977093,           0.
     13,   3.96293092,   14.4670372,           0.
     14,   2.49494028,   14.7910538,           0.
     15,   1.00188947,   14.9665031,           0.
     16, -0.501224637,   14.9916239,           0.
     17,  -1.99930429,   14.8661623,           0.
     18,  -3.47730231,   14.5913801,           0.
     19,  -4.92037296,   14.1700363,           0.
     20,  -6.31402159,   13.6063633,           0.
** ... 3436 like lines cut
*Element, type=S3
 1, 3411, 2593, 2603
 2, 1537, 1402, 1421
 3, 2234, 2222, 3348
 4, 1702,  357, 1566
 5, 3180, 2193,  619
 6, 3418, 2854, 2821
 7, 2010, 1944, 1898
 8, 2404, 2316, 2353
 9, 1159, 2962,  346
10, 3377, 2592, 2560
11, 2236, 2224,  576
12, 2573, 2684,  525
13, 3367, 2450, 2518
14, 3208, 1968,  613
15, 1767,  621, 1712
16, 3068, 3120, 1302
17, 1519, 1325, 1418
18, 1005, 1173,  402
19, 1003, 1174,  484
20, 1004, 1175,  685
** ... 68 like lines cut
*Element, type=S4R
  89,  714,  929,  942,   14
  90, 1077,  960,  945, 1044
  91, 1223, 1343, 3081, 1316
  92,  368, 1375, 1304, 1136
  93, 1280,  349, 1250,  350
  94, 1493, 1697,  328, 1443
  95, 1617, 1874,  306, 1505
  96, 1838, 1897, 3115,  259
  97, 3051, 1391, 1478, 1279
  98, 1259, 1211,  253, 3022
  99,  204, 1317, 1206, 1144
 100,  176, 1078, 1027,  922
 101, 1015,  920,  938,   68
 102,  922,    2,  690,  176
 103,  949,  948,  995,  968
 104, 1063, 1096,  964, 1022
 105, 1180, 1233, 1097,  281
 106, 1635, 3014, 2985, 1646
 107, 1312, 1257,  327, 1647
 108, 1398, 1145, 1212, 2102
** ... 3297 like lines cut
*Elset, elset=PART-1-1_PART-1-1_SET-1, generate
    1,  3405,     1
** Section: Section-1-PART-1-1_SET-1
*Shell Section, elset=PART-1-1_PART-1-1_SET-1, material=MATERIAL-1
2., 5
*System
*Nset, nset=PART-1-1_SET-1, generate
    1,  3456,     1
*Nset, nset=SET-1, generate
    1,  3456,     1
*Elset, elset=SET-1, generate
    1,  3405,     1
*Nset, nset=Set-7
   1,   2,   3,   4,   5,   6,   7,   8,   9,  10,  11,  12,  13,  14,  15,  16
  17,  18,  19,  20,  21,  22,  23,  24,  25,  26,  27,  28,  29,  30,  31,  32
  33,  34,  35,  36,  37,  38,  39,  40,  41,  42,  43,  44,  45,  46,  47,  48
  49,  50,  51,  52,  53,  54,  55,  56,  57,  58,  59,  60,  61,  62,  63, 686
 687, 688, 689, 690, 691, 692, 693, 694, 695, 696, 697, 698, 699, 700, 701, 702
 703, 704, 705, 706, 707, 708, 709, 710, 711, 712, 713, 714, 715, 716, 717, 718
 719, 720, 721, 722, 723, 724, 725, 726, 727, 728, 729, 730, 731, 732, 733, 734
 735, 736, 737, 738, 739, 740, 741, 742, 743, 744, 745, 746, 747, 748, 749, 750
 751, 752, 753, 754, 755, 756, 757, 758, 759, 760, 761, 762, 763, 764, 765, 766
 767, 768, 769, 770, 771, 772, 773, 774, 775, 776, 777, 778, 779, 780, 781, 782
 783, 784, 785, 786, 787, 788, 789, 790, 791, 792, 793, 794, 795, 796, 797, 798
 799, 800, 801, 802, 803, 804, 805, 806, 807, 808, 809, 810
*Elset, elset=_SURF-1_E1
  466,  467,  476,  477,  490, 1323, 1324, 1365, 1379, 1398, 1419, 1429
*Elset, elset=_SURF-1_E2
  102,  113,  115,  126,  128,  190,  216,  217,  220,  222,  223,  226,  227,  229,  231,  232
  233,  268,  295,  320,  322,  325,  337,  339,  366,  368,  369,  370,  372,  381,  462,  492
  743,  919,  940, 1236, 1237, 1238, 1245, 1247, 1252, 1253, 1254, 1257, 1259, 1261, 1263, 1264
 1266, 1267, 1270, 1271, 1273, 1275, 1276, 1277, 1281, 1282, 1287, 1288, 1294, 1298, 1299, 1304
 1305, 1306, 1309, 1310, 1311, 1314, 1316, 1332, 1333, 1335, 1337, 1339, 1341, 1343, 1344, 1356
 1360, 1371, 1374, 1381, 1385, 1421, 1424, 1428, 1432, 1437, 1440
*Elset, elset=_SURF-1_E3
  218,  374,  414,  434,  437,  450,  451,  483,  484,  702,  976, 1250, 1251, 1301, 1325, 1326
 1327, 1328, 1330, 1400, 1408, 1410, 1418, 1434
*Elset, elset=_SURF-1_E4
   89,  112,  114,  116,  117,  119,  121,  122,  124,  129,  131,  160,  219,  224,  228,  293
  296,  326,  338,  341,  348,  349,  373,  375,  376,  378,  461,  463,  707,  742,  897,  912
  923,  946, 1182, 1249, 1255, 1256, 1258, 1260, 1262, 1265, 1268, 1274, 1279, 1284, 1286, 1290
 1292, 1293, 1295, 1296, 1297, 1303, 1308, 1313, 1315, 1317, 1319, 1321, 1322
*Elset, elset=_Surf-1_SNEG, generate
    1,  3405,     1
*Surface, type=ELEMENT, name=Surf-1
_Surf-1_SNEG, SNEG
** 
** MATERIALS
** 
*Material, name=MATERIAL-1
*Elastic
210000., 0.3
** ----------------------------------------------------------------
** 
** STEP: Step-1
** 
*Step, name=Step-1, nlgeom=NO
*Static
1., 1., 1e-05, 1.
** 
** BOUNDARY CONDITIONS
** 
** Name: BC-1 Type: Symmetry/Antisymmetry/Encastre
*Boundary
Set-7, ENCASTRE
** 
** LOADS
** 
** Name: Load-1   Type: Pressure
*Dsload
Surf-1, P, 1.
** 
** OUTPUT REQUESTS
** 
*Restart, write, frequency=0
** 
** FIELD OUTPUT: F-Output-1
** 
*Output, field, variable=PRESELECT
** 
** HISTORY OUTPUT: H-Output-1
** 
*Output, history, variable=PRESELECT
*End Step
