*Heading
** Job name: FP2Job Model name: FP2
** Generated by: Abaqus/CAE 6.14-1
*Preprint, echo=NO, model=NO, history=NO, contact=NO
** ----------------------------------------------------------------
** 
** PART INSTANCE: Part-1-1
** 
*Node
      1,   14.1872587,   4.87049198,           0.
      2,   11.8371077,   9.21319103,           0.
      3,   8.20422268,    12.557497,           0.
      4,   3.68228221,   14.5410042,           0.
      5,  -1.23869014,   14.9487677,           0.
      6,  -6.02543116,   13.7365999,           0.
      7,  -10.1592236,   11.0358591,           0.
      8,  -13.1921062,    7.1392107,           0.
      9,  -14.7954197,    2.4689188,           0.
     10,  -14.7954197,   -2.4689188,           0.
     11,  -13.1921062,   -7.1392107,           0.
     12,  -10.1592236,  -11.0358591,           0.
     13,  -6.02543116,  -13.7365999,           0.
     14,  -1.23869014,  -14.9487677,           0.
     15,   3.68228221,  -14.5410042,           0.
     16,   8.20422268,   -12.557497,           0.
     17,   11.8371077,  -9.21319103,           0.
     18,   14.1872587,  -4.87049198,           0.
     19,          15.,           0.,           0.
     20,   1.88134217,   9.68663216,           0.
** ... 33 like lines cut
*Element, type=S3
1, 45,  7,  8
*Element, type=S4R
 2, 21,  5,  6, 44
 3, 19,  1, 30, 24
 4,  5, 21, 20,  4
 5, 27, 28, 48, 38
 6, 48, 28, 29, 41
 7, 38, 37, 26, 27
 8, 33, 29, 14, 15
 9, 50, 22, 23, 25
10, 21, 52, 40, 20
11, 30,  1,  2, 31
12,  3, 32, 31,  2
13, 16, 34, 33, 15
14, 38, 53, 42, 37
15,  8,  9, 23, 45
16, 44, 22, 52, 21
17,  9, 10, 25, 23
18, 45, 23, 22, 44
19, 10, 11, 26, 25
20, 46, 24, 36, 35
21, 18, 19, 24, 46
** ... 22 like lines cut
*Nset, nset=Set-1, generate
     1,  53,      1
*System
** 
** MATERIALS
** 
*Material, name=Material-1
*Elastic
210000., 0.3
** ----------------------------------------------------------------
** 
** STEP: Step-1
** 
*Step, name=Step-1, nlgeom=NO
*Static
1., 1., 1e-05, 1.
** 
** OUTPUT REQUESTS
** 
*Restart, write, frequency=0
** 
** FIELD OUTPUT: F-Output-1
** 
*Output, field, variable=PRESELECT
** 
** HISTORY OUTPUT: H-Output-1
** 
*Output, history, variable=PRESELECT
*End Step
