*Heading
** Job name: SphericalFlattened Model name: SphericalNew
** Generated by: Abaqus/CAE 6.14-1
*Preprint, echo=NO, model=NO, history=NO, contact=NO
** ----------------------------------------------------------------
** 
** PART INSTANCE: PART-1-1
** 
*Node
      1,          15.,         -15.,           0.
      2,          15.,          15.,           0.
      3,           0.,          30.,           0.
      4,           0.,         -30.,           0.
      5,   14.9665031,         -15.,   1.00188947
      6,   14.8661623,         -15.,   1.99930429
      7,   14.6994257,         -15.,   2.98778987
      8,   14.4670372,         -15.,   3.96293092
      9,   14.1700363,         -15.,   4.92037296
     10,   13.8097486,         -15.,   5.85583925
     11,   13.3877821,         -15.,   6.76515198
     12,    12.906024,         -15.,   7.64424944
     13,   12.3666239,         -15.,   8.48920631
     14,   11.7719908,         -15.,   9.29624844
     15,   11.1247816,         -15.,   10.0617714
     16,    10.427886,         -15.,   10.7823553
     17,   9.68441772,         -15.,   11.4547825
     18,    8.8976965,         -15.,   12.0760508
     19,   8.07123566,         -15.,    12.643384
     20,   7.20872641,         -15.,   13.1542492
** ... 6103 like lines cut
*Element, type=S4R
   1,    1,   97,  266,   98
   2,   97,   96,  267,  266
   3,   96,   95,  268,  267
   4,   95,   94,  269,  268
   5,   94,   93,  270,  269
   6,   93,   92,  271,  270
   7,   92,   91,  272,  271
   8,   91,   90,  273,  272
   9,   90,   89,  274,  273
  10,   89,   88,  275,  274
  11,   88,   87,  276,  275
  12,   87,   86,  277,  276
  13,   86,   85,  278,  277
  14,   85,   84,  279,  278
  15,   84,   83,  280,  279
  16,   83,   82,  281,  280
  17,   82,   81,  282,  281
  18,   81,   80,  283,  282
  19,   80,   79,  284,  283
  20,   79,   78,  285,  284
** ... 6052 like lines cut
*Element, type=S3
2821, 3843, 3785, 3842
2822, 4087, 4086, 4113
2823, 4008, 4041, 4009
2824, 2995, 3642, 2996
2825, 3564, 3547, 3546
2826, 4494, 3560, 3542
2827, 3026, 2971, 2970
2828, 3673, 3672, 4426
2829, 3735, 3734, 3733
2830, 3692, 3691, 3728
2831, 4556, 3917, 3916
2832, 3941, 4003, 3975
2833, 3972, 3970, 3999
2834, 3891, 4537, 3866
2835, 3562, 3573, 3584
2836, 3650, 3689, 3651
2837, 3148, 3128, 3140
2838, 4291, 3240, 4355
2839, 4430, 3115, 3085
2840, 3150, 3109, 3127
** ... 78 like lines cut
*Elset, elset=PART-1-1_Set-1, generate
    1,  6170,     1
** Section: Section-1
*Shell Section, elset=PART-1-1_Set-1, material=Material-1
2., 5
*System
*Nset, nset=SET-1, generate
    1,  6123,     1
*Nset, nset=Set-2, generate
    1,  6123,     1
*Nset, nset=Set-3
 2007, 2008, 2009, 2010, 2100, 2101, 2102, 2103, 2193, 2194, 2195, 2196, 2197, 2287, 2288, 2289
 2290, 2380, 2381, 2382, 2383, 2473, 2474, 2475, 2476, 2566, 2567, 2568, 2569, 2570, 2660, 2661
 2662, 2663, 2753, 2754, 2755, 2756, 2846, 2847, 5420, 5422, 5449, 5450, 5451, 5452, 5453, 5477
 5478, 5479, 5480, 5481, 5482, 5483, 5509, 5510, 5511, 5512, 5513, 5514, 5515, 5516, 5539, 5540
 5541, 5542, 5543, 5544, 5568, 5569, 5570, 5571, 5572, 5573, 5604, 5605, 5606, 5607, 5635, 5636
 5637, 6064, 6065, 6080, 6086, 6087, 6096, 6097, 6098, 6108, 6117, 6118, 6120, 6122, 6123
*Nset, nset=Set-4, generate
    1,  6123,     1
*Nset, nset=Set-5
 4887,
*Nset, nset=Set-6
 2991,
*Elset, elset=_Surf-1_SNEG
 3417,
*Surface, type=ELEMENT, name=Surf-1
_Surf-1_SNEG, SNEG
** 
** MATERIALS
** 
*Material, name=Material-1
*Elastic
210000., 0.3
** ----------------------------------------------------------------
** 
** STEP: Step-1
** 
*Step, name=Step-1, nlgeom=NO
*Static
1., 1., 1e-05, 1.
** 
** BOUNDARY CONDITIONS
** 
** Name: BC-1 Type: Symmetry/Antisymmetry/Encastre
*Boundary
Set-5, ENCASTRE
** 
** LOADS
** 
** Name: Load-1   Type: Concentrated force
*Cload
Set-6, 2, -1.
** 
** OUTPUT REQUESTS
** 
*Restart, write, frequency=0
** 
** FIELD OUTPUT: F-Output-1
** 
*Output, field, variable=PRESELECT
** 
** HISTORY OUTPUT: H-Output-1
** 
*Output, history, variable=PRESELECT
*End Step
