*Heading
** Job name: PipeElbowFlattened Model name: PipeElbowNewNew1
** Generated by: Abaqus/CAE 6.14-1
*Preprint, echo=NO, model=NO, history=NO, contact=NO
** ----------------------------------------------------------------
** 
** PART INSTANCE: PART-1-1
** 
*Node
      1,           0.,   15.8622131,   5.02480078
      2,           0.,    14.860055,   5.00065279
      3,           0.,   13.8585215,   5.04349566
      4,           0.,   12.8620863,   5.15313768
      5,           0.,   11.8751993,   5.32908916
      6,           0.,   10.9022684,   5.57056475
      7,           0.,   9.94763947,   5.87648582
      8,           0.,   9.01557541,   6.24548578
      9,           0.,   8.11023903,   6.67591667
     10,           0.,   7.23567438,   7.16585636
     11,           0.,   6.39578676,   7.71311617
     12,           0.,   5.59432745,    8.3152523
     13,           0.,   4.83487654,   8.96957588
     14,           0.,   4.12082529,   9.67316341
     15,           0.,   3.45536327,   10.4228725
     16,           0.,   2.84146237,   11.2153568
     17,           0.,   2.28186417,   12.0470743
     18,           0.,   1.77906859,   12.9143124
     19,           0.,   1.33532083,   13.8131962
     20,           0.,  0.952602744,   14.7397118
** ... 2988 like lines cut
*Element, type=S4R
   1,   94,    1,   95,  188
   2,    1,    2,   96,   95
   3,    2,    3,   97,   96
   4,    3,    4,   98,   97
   5,    4,    5,   99,   98
   6,    5,    6,  100,   99
   7,    6,    7,  101,  100
   8,    7,    8,  102,  101
   9,    8,    9,  103,  102
  10,    9,   10,  104,  103
  11,   10,   11,  105,  104
  12,   11,   12,  106,  105
  13,   12,   13,  107,  106
  14,   13,   14,  108,  107
  15,   14,   15,  109,  108
  16,   15,   16,  110,  109
  17,   16,   17,  111,  110
  18,   17,   18,  112,  111
  19,   18,   19,  113,  112
  20,   19,   20,  114,  113
** ... 2894 like lines cut
*Elset, elset=PART-1-1_Set-1, generate
    1,  2914,     1
** Section: Section-1
*Shell Section, elset=PART-1-1_Set-1, material=Material-1
2., 5
*System
*Nset, nset=SET-1, generate
    1,  3008,     1
*Nset, nset=Set-2, generate
  1,  94,   1
*Nset, nset=Set-3, generate
 2915,  3008,     1
*Elset, elset=_Surf-1_SPOS
 1206,
*Surface, type=ELEMENT, name=Surf-1
_Surf-1_SPOS, SPOS
*Elset, elset=_Surf-2_E3
 2900,
*Surface, type=ELEMENT, name=Surf-2
_Surf-2_E3, E3
** 
** MATERIALS
** 
*Material, name=Material-1
*Elastic
210000., 0.3
** ----------------------------------------------------------------
** 
** STEP: Step-1
** 
*Step, name=Step-1, nlgeom=NO
*Static
1., 1., 1e-05, 1.
** 
** BOUNDARY CONDITIONS
** 
** Name: BC-1 Type: Symmetry/Antisymmetry/Encastre
*Boundary
Set-2, ENCASTRE
** 
** LOADS
** 
** Name: Load-1   Type: Shell edge load
*Dsload
Surf-2, EDNOR, 1.
** 
** OUTPUT REQUESTS
** 
*Restart, write, frequency=0
** 
** FIELD OUTPUT: F-Output-1
** 
*Output, field, variable=PRESELECT
** 
** HISTORY OUTPUT: H-Output-1
** 
*Output, history, variable=PRESELECT
*End Step
